# Name file for MODPATH 7, generated by Flopy version 3.5.0.
MPBAS      01_EX_modpath.mpbas
DIS        01_EX.dis
HEAD       .\01_EX.hds
BUDGET     .\01_EX.cbc
