# CHD package for MODFLOW-2005 generated by Flopy 3.5.0
        40
        40         0 # stress period 1
         2         1         1             9.0             9.0
         2         2         1             9.0             9.0
         2         3         1             9.0             9.0
         2         4         1             9.0             9.0
         2         5         1             9.0             9.0
         2         6         1             9.0             9.0
         2         7         1             9.0             9.0
         2         8         1             9.0             9.0
         2         9         1             9.0             9.0
         2        10         1             9.0             9.0
         2        11         1             9.0             9.0
         2        12         1             9.0             9.0
         2        13         1             9.0             9.0
         2        14         1             9.0             9.0
         2        15         1             9.0             9.0
         2        16         1             9.0             9.0
         2        17         1             9.0             9.0
         2        18         1             9.0             9.0
         2        19         1             9.0             9.0
         2        20         1             9.0             9.0
         2         1        20             9.5             9.5
         2         2        20             9.5             9.5
         2         3        20             9.5             9.5
         2         4        20             9.5             9.5
         2         5        20             9.5             9.5
         2         6        20             9.5             9.5
         2         7        20             9.5             9.5
         2         8        20             9.5             9.5
         2         9        20             9.5             9.5
         2        10        20             9.5             9.5
         2        11        20             9.5             9.5
         2        12        20             9.5             9.5
         2        13        20             9.5             9.5
         2        14        20             9.5             9.5
         2        15        20             9.5             9.5
         2        16        20             9.5             9.5
         2        17        20             9.5             9.5
         2        18        20             9.5             9.5
         2        19        20             9.5             9.5
         2        20        20             9.5             9.5
