# Name file for MODFLOW-2005, generated by Flopy version 3.5.0.
#xll:0.0; yll:0.0; rotation:0.0; units:meters; lenuni:2; start_datetime:1-1-1970
LIST               2  01_EX.list
DIS               11  01_EX.dis
BAS6              13  01_EX.bas
CHD               24  01_EX.chd
LPF               15  01_EX.lpf
PCG               27  01_EX.pcg
OC                14  01_EX.oc
DATA(BINARY)      53  01_EX.cbc REPLACE
DATA(BINARY)      51  01_EX.hds REPLACE
