# DIS package for MODFLOW-2005 generated by Flopy 3.5.0
         5        20        20         1         1         2
  0  0  0  0  0
CONSTANT    2.000000E+00                           #delr                          
CONSTANT    2.000000E+00                           #delc                          
CONSTANT    1.000000E+01                           #model_top                     
CONSTANT    8.000000E+00                           #botm layer 1                  
CONSTANT    6.000000E+00                           #botm layer 2                  
CONSTANT    4.000000E+00                           #botm layer 3                  
CONSTANT    2.000000E+00                           #botm layer 4                  
CONSTANT    0.000000E+00                           #botm layer 5                  
      1.000000             1  1.000000  SS
