# MPSIM package for MODPATH 7 generated by Flopy 3.5.0
01_EX_modpath.mpnam
01_EX_modpath.mplst
2 1 2 1 0 0
01_EX_modpath.mpend
01_EX_modpath.mppth
0
1
0
2
1
1
1
PG1
1
0.0
INTERNAL
1
1
14 0
         2         1         1           0.625           0.625             0.5               0         0
         2         4         1           0.625           0.625             0.5               0         0
         2         7         1           0.625           0.625             0.5               0         0
         2        10         1           0.625           0.625             0.5               0         0
         2        13         1           0.625           0.625             0.5               0         0
         2        16         1           0.625           0.625             0.5               0         0
         2        19         1           0.625           0.625             0.5               0         0
         2         2        20           0.625           0.625             0.5               0         0
         2         5        20           0.625           0.625             0.5               0         0
         2         8        20           0.625           0.625             0.5               0         0
         2        11        20           0.625           0.625             0.5               0         0
         2        14        20           0.625           0.625             0.5               0         0
         2        17        20           0.625           0.625             0.5               0         0
         2        20        20           0.625           0.625             0.5               0         0
